#helm repo add backstage https://janus-idp.github.io/helm-backstage
#helm repo update
#oc project backstage
#helm install backstage backstage/backstage --values values.yaml
global:
  auth:
    backend:
      enabled: true
  clusterRouterBase: {{ ocp4_workload_redhat_developer_hub_apps_domain }}
  dynamic:
    includes:
      - dynamic-plugins.default.yaml
    plugins:
      - package: ./dynamic-plugins/dist/roadiehq-backstage-plugin-security-insights
        disabled: false
      - package: ./dynamic-plugins/dist/immobiliarelabs-backstage-plugin-gitlab-backend-dynamic
        disabled: false
      - package: ./dynamic-plugins/dist/immobiliarelabs-backstage-plugin-gitlab
        disabled: false
      - package: ./dynamic-plugins/dist/backstage-plugin-catalog-backend-module-gitlab-dynamic
        disabled: false
      - package: ./dynamic-plugins/dist/backstage-plugin-scaffolder-backend-module-gitlab-dynamic
        disabled: false
      - package: ./dynamic-plugins/dist/backstage-plugin-kubernetes-backend-dynamic
        disabled: false
      - package: ./dynamic-plugins/dist/backstage-plugin-kubernetes
        disabled: false
      - package: ./dynamic-plugins/dist/janus-idp-backstage-plugin-topology
        disabled: false
      - package: ./dynamic-plugins/dist/roadiehq-backstage-plugin-argo-cd-backend-dynamic
        disabled: false
      - package: ./dynamic-plugins/dist/roadiehq-scaffolder-backend-argocd-dynamic
        disabled: false
      - package: ./dynamic-plugins/dist/roadiehq-backstage-plugin-argo-cd
        disabled: false
      - package: ./dynamic-plugins/dist/janus-idp-backstage-plugin-ocm
        disabled: false
      - package: ./dynamic-plugins/dist/janus-idp-backstage-plugin-ocm-backend-dynamic
        disabled: false
      - package: ./dynamic-plugins/dist/roadiehq-scaffolder-backend-module-utils-dynamic
        disabled: false
      - package: ./dynamic-plugins/dist/janus-idp-backstage-plugin-keycloak-backend-dynamic
        disabled: false
      - package: ./dynamic-plugins/dist/backstage-plugin-techdocs-backend-dynamic
        disabled: false
      - package: ./dynamic-plugins/dist/janus-idp-backstage-plugin-tekton
        disabled: false
      - package: ./dynamic-plugins/dist/janus-idp-backstage-plugin-quay
        disabled: false

upstream:
  backstage:
    image:
      registry: {{ ocp4_workload_redhat_developer_hub_backstage_image_registry }}
      repository: {{ ocp4_workload_redhat_developer_hub_backstage_image_repository }}
      tag: '{{ ocp4_workload_redhat_developer_hub_backstage_image_tag }}'
      pullSecrets:
      - redhat-gpte-devhub-pull-secret
    extraEnvVars:
      - name: BACKEND_SECRET
        value: "{{ '{{ randAlphaNum 24 | b64enc }}' }}"
      - name: 'APP_CONFIG_app_baseUrl'
        value: 'https://{{ ocp4_workload_redhat_developer_hub_backstage_host }}'
      - name: 'APP_CONFIG_backend_baseUrl'
        value: 'https://{{ ocp4_workload_redhat_developer_hub_backstage_host }}'
      - name: 'APP_CONFIG_backend_cors_origin'
        value: 'https://{{ ocp4_workload_redhat_developer_hub_backstage_host }}'
      - name: POSTGRES_ADMIN_PASSWORD
        valueFrom:
          secretKeyRef:
            key: postgres-password
            name: backstage-postgresql
      - name: NODE_TLS_REJECT_UNAUTHORIZED
        value: "0"
      - name: APP_CONFIG_catalog_providers_keycloakOrg_default_baseUrl
        value: https://{{ ocp4_workload_redhat_developer_hub_keycloak_host }}/auth
      - name: APP_CONFIG_catalog_providers_keycloakOrg_default_loginRealm
        value: backstage
      - name: APP_CONFIG_catalog_providers_keycloakOrg_default_realm
        value: backstage
      - name: APP_CONFIG_catalog_providers_keycloakOrg_default_clientId
        valueFrom:
          secretKeyRef:
            key: CLIENT_ID
            name: keycloak-client-secret-backstage
      - name: APP_CONFIG_catalog_providers_keycloakOrg_default_clientSecret
        valueFrom:
          secretKeyRef:
            key: CLIENT_SECRET
            name: keycloak-client-secret-backstage
      - name: LOG_LEVEL
        value: debug
    extraContainers:
      - name: oauth2-proxy
        env:
          - name: OAUTH2_PROXY_CLIENT_ID
            valueFrom:
              secretKeyRef:
                key: CLIENT_ID
                name: keycloak-client-secret-backstage
          - name: OAUTH2_PROXY_CLIENT_SECRET
            valueFrom:
              secretKeyRef:
                key: CLIENT_SECRET
                name: keycloak-client-secret-backstage
          - name: OAUTH2_PROXY_COOKIE_SECRET
            value: "{{ '{{ randAlpha 32 | lower | b64enc }}' }}"
          - name: OAUTH2_PROXY_OIDC_ISSUER_URL
            value: https://{{ ocp4_workload_redhat_developer_hub_keycloak_host }}/auth/realms/backstage
          - name: OAUTH2_PROXY_SSL_INSECURE_SKIP_VERIFY
            value: 'true'
        ports:
          - name: oauth2-proxy
            containerPort: 4180
            protocol: TCP
        imagePullPolicy: IfNotPresent
        image: 'quay.io/oauth2-proxy/oauth2-proxy:latest'
        args:
          - '--provider=oidc'
          - '--email-domain=*'
          - '--upstream=http://localhost:7007'
          - '--http-address=0.0.0.0:4180'
          - '--skip-provider-button'
          - '--insecure-oidc-allow-unverified-email=true'

    initContainers:
      - name: install-dynamic-plugins
        image: '{{ '{{' }} include "backstage.image" . {{ '}}' }}'
        command:
          - python
          - install-dynamic-plugins.py
          - /dynamic-plugins-root
        env:
          - name: NPM_CONFIG_USERCONFIG
            value: /opt/app-root/src/.npmrc.dynamic-plugins
          - name: MAX_ENTRY_SIZE
            value: "20000000"
        imagePullPolicy: Always
        volumeMounts:
          - mountPath: /dynamic-plugins-root
            name: dynamic-plugins-root
          - mountPath: /opt/app-root/src/dynamic-plugins.yaml
            name: dynamic-plugins
            readOnly: true
            subPath: dynamic-plugins.yaml
          - mountPath: /opt/app-root/src/.npmrc.dynamic-plugins
            name: dynamic-plugins-npmrc
            readOnly: true
            subPath: .npmrc
        workingDir: /opt/app-root/src
    installDir: /opt/app-root/src
    podAnnotations:
      checksum/dynamic-plugins: >-
        {{ '{{- include "common.tplvalues.render" ( dict "value" .Values.global.dynamic "context" $) | sha256sum }}' }}

    appConfig:
      backend:
        listen:
          port: 7007
          host: 0.0.0.0
        csp:
          connect-src: ["'self'", 'http:', 'https:']
        cors:
          origin: https://{{ ocp4_workload_redhat_developer_hub_backstage_host }}
          methods: [GET, POST, PUT, DELETE]
          credentials: true
        database:
          client: pg
          connection:
            host: "${POSTGRES_HOST}"
            port: "${POSTGRES_PORT}"
            user: "${POSTGRES_USER}"
            password: "${POSTGRES_ADMIN_PASSWORD}"
        reading:
          allow:
            - host: '*.{{ ocp4_workload_redhat_developer_hub_apps_domain }}'

      integrations:
        gitlab:
        - host: {{ ocp4_workload_redhat_developer_hub_gitlab_host }}
          baseUrl: https://{{ ocp4_workload_redhat_developer_hub_gitlab_host }}
          apiBaseUrl: https://{{ ocp4_workload_redhat_developer_hub_gitlab_host }}/api/v4
          token: {{ ocp4_workload_redhat_developer_hub_gitlab_root_token }}

      proxy:
        endpoints:
          '/quay/api':
            target: 'https://{{ ocp4_workload_redhat_developer_hub_quay_host }}'
            headers:
              X-Requested-With: 'XMLHttpRequest'
              # Uncomment the following line to access a private Quay Repository using a token
              Authorization: 'Bearer {{ ocp4_workload_redhat_developer_hub_quay_admin_token }}'
            changeOrigin: true
            # Change to "false" in case of using self hosted quay instance with a self-signed certificate
            secure: false

      quay:
        # The UI url for Quay, used to generate the link to Quay
        uiUrl: 'https://{{ ocp4_workload_redhat_developer_hub_quay_host }}'

      techdocs:
        builder: 'external'
        generator:
          runIn: 'local'
        publisher:
          type: 'awsS3'
          awsS3:
            bucketName: {{ ocp4_workload_redhat_developer_hub_s3_bucket_name }}
            region: {{ ocp4_workload_redhat_developer_hub_s3_bucket_region }}
            endpoint: {{ ocp4_workload_redhat_developer_hub_s3_bucket_endpoint }}
            s3ForcePathStyle: true
            credentials:
              accessKeyId: {{ ocp4_workload_redhat_developer_hub_s3_bucket_aws_access_key_id }}
              secretAccessKey: {{ ocp4_workload_redhat_developer_hub_s3_bucket_aws_secret_access_key }}

      auth:
        environment: production
        providers:
          oauth2Proxy: {}

      signInPage: oauth2Proxy

      scaffolder:
        # see https://backstage.io/docs/features/software-templates/configuration for software template options

      catalog:
        rules:
          - allow: [Component, System, API, Resource, Location, Template]
        locations:
{% for location in ocp4_workload_redhat_developer_hub_gitlab_template_locations %}
          - target: https://{{ ocp4_workload_redhat_developer_hub_gitlab_host }}/{{ location.group }}/{{ location.project }}/blob/{{ location.branch }}/{{ location.file }}
            type: url
            rules:
              - allow: [{{ location.rules.allow }}]
{% endfor %}
        providers:
          gitlab:
            selfHosted:
              host: {{ ocp4_workload_redhat_developer_hub_gitlab_host }}
              schedule: # optional; same options as in TaskScheduleDefinition
                # supports cron, ISO duration, "human duration" as used in code
                frequency: { seconds: 10 }
                # supports ISO duration, "human duration" as used in code
                timeout: { seconds: 60 }
          ocm:
            default:
              name: multiclusterhub
              kubernetesPluginRef: dev-cluster-infra
              schedule: # optional; same options as in TaskScheduleDefinition
                # supports cron, ISO duration, "human duration" as used in code
                frequency: { seconds: 10 }
                # supports ISO duration, "human duration" as used in code
                timeout: { seconds: 60 }
              owner: group:rhdh

      argocd:
        appLocatorMethods:
          - type: 'config'
            instances:
              - name: main
                url: 	https://{{ ocp4_workload_redhat_developer_hub_argocd_host }}
                username: admin
                password: {{ ocp4_workload_redhat_developer_hub_argocd_password }}

      kubernetes:
        serviceLocatorMethod:
          type: "multiTenant"
        clusterLocatorMethods:
          - type: "config"
            clusters:
              - name: dev-cluster-infra
                url: {{ ocp4_workload_redhat_developer_hub_ocp_api }}
                authProvider: "serviceAccount"
                skipTLSVerify: true
                serviceAccountToken: {{ ocp4_workload_redhat_developer_hub_ocp_default_sa_token }}
        customResources:
          - group: 'tekton.dev'
            apiVersion: 'v1beta1'
            plural: 'pipelineruns'
          - group: 'tekton.dev'
            apiVersion: 'v1beta1'
            plural: 'taskruns'
          - group: 'route.openshift.io'
            apiVersion: 'v1'
            plural: 'routes'

      permission:
        enabled: false

      enabled:
        kubernetes: true
        techdocs: true
        argocd: true
        sonarqube: false
        keycloak: true
        ocm: true
        github: false
        githubOrg: false
        gitlab: true
        jenkins: false
        permission: false

  postgresql:
    enabled: true
    database: backstage
    postgresqlDataDir: /var/lib/pgsql/data/userdata
    auth:
      username: postgres
      database: backstage
      existingSecret: backstage-postgresql
      secretKeys:
        userPasswordKey: postgres-password
    image:
      registry: registry.redhat.io
      repository: rhel9/postgresql-13
      tag: 1-73
    primary:
      securityContext:
        enabled: false
      podSecurityContext:
        enabled: false
      containerSecurityContext:
        enabled: false
      persistence:
        enabled: true
        mountPath: /var/lib/pgsql/data
      extraEnvVars:
        - name: POSTGRESQL_ADMIN_PASSWORD
          valueFrom:
            secretKeyRef:
              key: postgres-password
              name: backstage-postgresql
  service:
    ports:
      backend: 4180
      targetPort: oauth2-proxy

  ingress:
    enabled: true
    host: {{ ocp4_workload_redhat_developer_hub_backstage_host }}
    tls:
      enabled: true

  serviceAccount:
    name: backstage
    create: true
